5
Chloroform
C                 -1.91666662   -2.92424238    0.00000000
H                 -1.56001219   -3.93305238    0.00000000
H                 -1.55999378   -2.41984419   -0.87365150
H                 -2.98666662   -2.92422920    0.00000000
Cl                -1.32998979   -2.09457807    1.43703425