5
Methane 
C                  0.03787879   -0.34848484    0.00000000
H                  0.39453321   -1.35729485    0.00000000
H                  0.39455163    0.15591335    0.87365150
H                  0.39455163    0.15591335   -0.87365150
H                 -1.03212121   -0.34847166    0.00000000